case_cm.m
function mpc = case_cm
%CASE9    Power flow data for 9 bus, 3 generator case.
%   Please see CASEFORMAT for details on the case file format.
%
%   Based on data from Joe H. Chow's book, p. 70.

%   MATPOWER
%   $Id: case9.m 2408 2014-10-22 20:41:33Z ray $

%% MATPOWER Case Format : Version 2
mpc.version = '2';

%%-----  Power Flow Data  -----%%
%% system MVA base
mpc.baseMVA = 100;

%% bus data
%	bus_i	type	Pd	Qd	Gs	Bs	area	Vm	Va	baseKV	zone	Vmax	Vmin
mpc.bus = [
%中双港													
22001	1	0	0	0	0	1	1	0	230	1	1.1	0.9	;
11001	1	0	0	0	0	1	1	0	115	1	1.1	0.9	;
3501	1	0	0	0	0	1	1	0	37	1	1.1	0.9	;
%堡北													
22002	1	0	0	0	0	1	1	0	230	1	1.1	0.9	;
11002	1	0	0	0	0	1	1	0	115	1	1.1	0.9	;
3502	1	0	0	0	0	1	1	0	37	1	1.1	0.9	;
%陈家镇													
22003	1	0	0	0	0	1	1	0	230	1	1.1	0.9	;
11003	1	0	0	0	0	1	1	0	115	1	1.1	0.9	;
3503	1	0	0	0	0	1	1	0	37	1	1.1	0.9	;
%南通海门													
22004	2	0	0	0	0	1	1	0	230	1	1.1	0.9	;
%长兴													
22005	2	0	0	0	0	1	1	0	230	1	1.1	0.9	;
11005	1	0	0	0	0	1	1	0	115	1	1.1	0.9	;
%南门													
111006	1	0	0	0	0	1	1	0	115	1	1.1	0.9	;
211006	1	0	0	0	0	1	1	0	230	1	1.1	0.9	;
3506	1	0	0	0	0	1	1	0	37	1	1.1	0.9	;
1006	1	0	0	0	0	1	1	0	10.5	1	1.1	0.9	;
%新海													
11007	1	0	0	0	0	1	1	0	115	1	1.1	0.9	;
3507	1	0	0	0	0	1	1	0	37	1	1.1	0.9	;
1007	1	0	0	0	0	1	1	0	10.5	1	1.1	0.9	;
%红星													
11008	1	0	0	0	0	1	1	0	115	1	1.1	0.9	;
3508	1	0	0	0	0	1	1	0	37	1	1.1	0.9	;
1008	1	0	0	0	0	1	1	0	10.5	1	1.1	0.9	;
%长江													
11009	1	0	0	0	0	1	1	0	115	1	1.1	0.9	;
3509	1	0	0	0	0	1	1	0	37	1	1.1	0.9	;
1009	1	0	0	0	0	1	1	0	10.5	1	1.1	0.9	;
%竖河													
111010	1	0	0	0	0	1	1	0	115	1	1.1	0.9	;
211010	1	0	0	0	0	1	1	0	115	1	1.1	0.9	;
3510	1	0	0	0	0	1	1	0	37	1	1.1	0.9	;
1010	1	0	0	0	0	1	1	0	10.5	1	1.1	0.9	;
%汲浜													
111011	1	0	0	0	0	1	1	0	115	1	1.1	0.9	;
211011	1	0	0	0	0	1	1	0	115	1	1.1	0.9	;
3511	1	0	0	0	0	1	1	0	37	1	1.1	0.9	;
1011	1	0	0	0	0	1	1	0	10.5	1	1.1	0.9	;
%展宏													
111012	1	0	0	0	0	1	1	0	115	1	1.1	0.9	;
211012	1	0	0	0	0	1	1	0	115	1	1.1	0.9	;
1012	1	0	0	0	0	1	1	0	10.5	1	1.1	0.9	;
%前卫风电													
11013	1	0	0	0	0	1	1	0	115	1	1.1	0.9	;
%南通崇海													
11014	2	0	0	0	0	1	1	0	115	1	1.1	0.9	;
%北堡风电													
11015	1	0	0	0	0	1	1	0	115	1	1.1	0.9	;
%北沿风电													
11016	1	0	0	0	0	1	1	0	115	1	1.1	0.9	;
%乔松													
13517	1	0	0	0	0	1	1	0	37	1	1.1	0.9	;
23517	1	0	0	0	0	1	1	0	37	1	1.1	0.9	;
1017	1	0	0	0	0	1	1	0	10.5	1	1.1	0.9	;
%建设													
3518	1	0	0	0	0	1	1	0	37	1	1.1	0.9	;
1018	1	0	0	0	0	1	1	0	10.5	1	1.1	0.9	;
%森林													
13519	1	0	0	0	0	1	1	0	37	1	1.1	0.9	;
23519	1	0	0	0	0	1	1	0	37	1	1.1	0.9	;
1019	1	0	0	0	0	1	1	0	10.5	1	1.1	0.9	;
%大同													
3520	1	0	0	0	0	1	1	0	37	1	1.1	0.9	;
1020	1	0	0	0	0	1	1	0	10.5	1	1.1	0.9	;
%大东船务													
3521	1	0	0	0	0	1	1	0	37	1	1.1	0.9	;
%湄洲													
13522	1	0	0	0	0	1	1	0	37	1	1.1	0.9	;
23522	1	0	0	0	0	1	1	0	37	1	1.1	0.9	;
1022	1	0	0	0	0	1	1	0	10.5	1	1.1	0.9	;
%明珠													
13523	1	0	0	0	0	1	1	0	37	1	1.1	0.9	;
23523	1	0	0	0	0	1	1	0	37	1	1.1	0.9	;
1023	1	0	0	0	0	1	1	0	10.5	1	1.1	0.9	;
%园区													
13524	1	0	0	0	0	1	1	0	37	1	1.1	0.9	;
23524	1	0	0	0	0	1	1	0	37	1	1.1	0.9	;
1024	1	0	0	0	0	1	1	0	10.5	1	1.1	0.9	;
%崇安													
13525	1	0	0	0	0	1	1	0	37	1	1.1	0.9	;
23525	1	0	0	0	0	1	1	0	37	1	1.1	0.9	;
1025	1	0	0	0	0	1	1	0	10.5	1	1.1	0.9	;
%新闸													
13526	1	0	0	0	0	1	1	0	37	1	1.1	0.9	;
23526	1	0	0	0	0	1	1	0	37	1	1.1	0.9	;
1026	1	0	0	0	0	1	1	0	10.5	1	1.1	0.9	;
%跃进													
13527	1	0	0	0	0	1	1	0	37	1	1.1	0.9	;
23527	1	0	0	0	0	1	1	0	37	1	1.1	0.9	;
1027	1	0	0	0	0	1	1	0	10.5	1	1.1	0.9	;
%东风西沙水库													
3528	1	0	0	0	0	1	1	0	37	1	1.1	0.9	;
%三星													
3529	1	0	0	0	0	1	1	0	37	1	1.1	0.9	;
1029	1	0	0	0	0	1	1	0	10.5	1	1.1	0.9	;
%庙镇													
3530	1	0	0	0	0	1	1	0	37	1	1.1	0.9	;
1030	1	0	0	0	0	1	1	0	10.5	1	1.1	0.9	;
%用户长江													
3531	1	0	0	0	0	1	1	0	37	1	1.1	0.9	;
%长征													
3532	1	0	0	0	0	1	1	0	37	1	1.1	0.9	;
1032	1	0	0	0	0	1	1	0	10.5	1	1.1	0.9	;
%东风													
13533	1	0	0	0	0	1	1	0	37	1	1.1	0.9	;
23533	1	0	0	0	0	1	1	0	37	1	1.1	0.9	;
1033	1	0	0	0	0	1	1	0	10.5	1	1.1	0.9	;
%启隆													
3534	1	0	0	0	0	1	1	0	37	1	1.1	0.9	;
1034	1	0	0	0	0	1	1	0	10.5	1	1.1	0.9	;
%前卫													
13535	1	0	0	0	0	1	1	0	37	1	1.1	0.9	;
23535	1	0	0	0	0	1	1	0	37	1	1.1	0.9	;
1035	1	0	0	0	0	1	1	0	10.5	1	1.1	0.9	;
%新河													
3536	1	0	0	0	0	1	1	0	37	1	1.1	0.9	;
1036	1	0	0	0	0	1	1	0	10.5	1	1.1	0.9	;
%富盛													
13537	1	0	0	0	0	1	1	0	37	1	1.1	0.9	;
23537	1	0	0	0	0	1	1	0	37	1	1.1	0.9	;
1037	1	0	0	0	0	1	1	0	10.5	1	1.1	0.9	;
%堡镇													
13538	1	0	0	0	0	1	1	0	37	1	1.1	0.9	;
23538	1	0	0	0	0	1	1	0	37	1	1.1	0.9	;
1038	1	0	0	0	0	1	1	0	10.5	1	1.1	0.9	;
%前进													
3539	1	0	0	0	0	1	1	0	37	1	1.1	0.9	;
1039	1	0	0	0	0	1	1	0	10.5	1	1.1	0.9	;
%上船													
13540	1	0	0	0	0	1	1	0	37	1	1.1	0.9	;
23540	1	0	0	0	0	1	1	0	37	1	1.1	0.9	;
1040	1	0	0	0	0	1	1	0	10.5	1	1.1	0.9	;
%港沿													
3541	1	0	0	0	0	1	1	0	37	1	1.1	0.9	;
1041	1	0	0	0	0	1	1	0	10.5	1	1.1	0.9	;
%裕安													
3542	1	0	0	0	0	1	1	0	37	1	1.1	0.9	;
1042	1	0	0	0	0	1	1	0	10.5	1	1.1	0.9	;
%陈东													
13543	1	0	0	0	0	1	1	0	37	1	1.1	0.9	;
23543	1	0	0	0	0	1	1	0	37	1	1.1	0.9	;
1043	1	0	0	0	0	1	1	0	10.5	1	1.1	0.9	;
%前哨													
3544	1	0	0	0	0	1	1	0	37	1	1.1	0.9	;
1044	1	0	0	0	0	1	1	0	10.5	1	1.1	0.9	;
%前哨风电													
3545	1	0	0	0	0	1	1	0	37	1	1.1	0.9	;
%五效													
3546	1	0	0	0	0	1	1	0	37	1	1.1	0.9	;
1046	1	0	0	0	0	1	1	0	10.5	1	1.1	0.9	;
%燃机													
22047	2	0	0	0	0	1	1	0	230	1	1.1	0.9	;


];

%% generator data
%	bus	Pg	Qg	Qmax	Qmin	Vg	mBase	status	Pmax	Pmin	Pc1	Pc2	Qc1min	Qc1max	Qc2min	Qc2max	ramp_agc	ramp_10	ramp_30	ramp_q	apf
mpc.gen = [
22004	0	0	300	-300	1	100	1	250	10	0	0	0	0	0	0	0	0	0	0	0	;	%	海门
22005	0	0	50	-50	1	100	1	250	10	0	0	0	0	0	0	0	0	0	0	0	;	%	长兴
11013	0	0	300	-300	1	100	1	250	10	0	0	0	0	0	0	0	0	0	0	0	;	%	前卫风
11014	0	0	300	-300	1	100	1	250	10	0	0	0	0	0	0	0	0	0	0	0	;	%	崇海
11015	0	0	300	-300	1	100	1	250	10	0	0	0	0	0	0	0	0	0	0	0	;	%	北堡风
11016	0	0	300	-300	1	100	1	250	10	0	0	0	0	0	0	0	0	0	0	0	;	%	北沿风
3545	0	0	300	-300	1	100	1	250	10	0	0	0	0	0	0	0	0	0	0	0	;	%	前哨风
22047	0	0	300	-300	1	100	1	250	10	0	0	0	0	0	0	0	0	0	0	0	;	%	燃气

];

%% branch data
%	fbus	tbus	r	x	b	rateA	rateB	rateC	ratio	angle	status	angmin	angmax
mpc.branch = [
%中双港															
22001	22004	0.0038	0.0325	0	250	250	250	0	0	1	-360	360	;	%	海中4633
22001	22004	0.0061	0.0399	0	250	250	250	0	0	1	-360	360	;	%	海中4634
22001	22002	0.0015	0.0129	0.0551	250	250	250	0	0	1	-360	360	;	%	中堡4277
22001	22002	0.0017	0.0129	0.0553	250	250	250	0	0	1	-360	360	;	%	中堡4278
11001	11013	0.0284	0.0936	0.0159	250	250	250	0	0	1	-360	360	;	%	中前1119
11001	111006	0.0043	0.0135	0	250	250	250	0	0	1	-360	360	;	%	中南1114
11001	211006	0.0042	0.0135	0	250	250	250	0	0	1	-360	360	;	%	中城1115
11001	11002	0.0227	0.0782	0.0123	250	250	250	0	0	1	-360	360	;	%	中堡1101
11001	11007	0.0309	0.0993	0	250	250	250	0	0	1	-360	360	;	%	中新1118
11001	11008	0.0168	0.0538	0	250	250	250	0	0	1	-360	360	;	%	中红1117
3501	13526	0.0274	0.0704	0	250	250	250	0	0	1	-360	360	;	%	双闸3U002
3501	13525	0.0632	0.1188	0	250	250	250	0	0	1	-360	360	;	%	双安3U001
3501	3530	0.1532	0.3282	0	250	250	250	0	0	1	-360	360	;	%	双庙517
3501	13524	0.0403	0.0864	0	250	250	250	0	0	1	-360	360	;	%	园区522
3501	13523	0.0295	0.0726	0	250	250	250	0	0	1	-360	360	;	%	双明521
3501	3518	0.065	0.1366	0	250	250	250	0	0	1	-360	360	;	%	双建520
3501	3518	0.1348	0.2487	0	250	250	250	0	0	1	-360	360	;	%	双建525
3501	13517	0.0211	0.0494	0	250	250	250	0	0	1	-360	360	;	%	双乔519
3501	23517	0.0211	0.0494	0	250	250	250	0	0	1	-360	360	;	%	双乔528
3501	13533	0.1153	0.2393	0	250	250	250	0	0	1	-360	360	;	%	双东526
3501	13522	0.0561	0.0921	0	250	250	250	0	0	1	-360	360	;	%	双湄527
3501	3520	0.1335	0.2571	0	250	250	250	0	0	1	-360	360	;	%	双同523
3501	3506	0.0556	0.1155	0	250	250	250	0	0	1	-360	360	;	%	双南524
22001	11001	0	0.1125	0	250	250	250	0	0	1	-360	360	;	%	变压器
22001	3501	0	0.1872	0	250	250	250	0	0	1	-360	360	;	%	变压器
11001	3501	0	0.0587	0	250	250	250	0	0	1	-360	360	;	%	变压器
22001	11001	0	0.1117	0	250	250	250	0	0	1	-360	360	;	%	变压器
22001	3501	0	0.1859	0	250	250	250	0	0	1	-360	360	;	%	变压器
11001	3501	0	0.0582	0	250	250	250	0	0	1	-360	360	;	%	变压器
%堡北															
22002	22003	0.0009	0.0086	0.0361	250	250	250	0	0	1	-360	360	;	%	家堡4289
22002	22003	0.0009	0.0086	0.0348	250	250	250	0	0	1	-360	360	;	%	家堡4290
11002	111010	0.0065	0.0247	0.0054	250	250	250	0	0	1	-360	360	;	%	堡竖1109
11002	211010	0.0066	0.0246	0.0053	250	250	250	0	0	1	-360	360	;	%	堡竖1108
11002	211011	0.0192	0.0495	0.0087	250	250	250	0	0	1	-360	360	;	%	堡汲1103
11002	11009	0.0192	0.0636	0.0118	250	250	250	0	0	1	-360	360	;	%	堡长1110
11002	11015	0.007	0.0306	0	250	250	250	0	0	1	-360	360	;	%	堡北1U001
3502	3546	0.0998	0.2393	0	250	250	250	0	0	1	-360	360	;	%	堡效219
3502	13538	0.0634	0.1687	0	250	250	250	0	0	1	-360	360	;	%	堡镇202
3502	23538	0.0414	0.1077	0	250	250	250	0	0	1	-360	360	;	%	堡镇215
3502	13540	0.1497	0.2989	0	250	250	250	0	0	1	-360	360	;	%	堡船207
3502	23540	0.1496	0.2988	0	250	250	250	0	0	1	-360	360	;	%	堡船217
3502	3541	0.0658	0.1372	0	250	250	250	0	0	1	-360	360	;	%	堡港208
3502	3541	0.0655	0.1365	0	250	250	250	0	0	1	-360	360	;	%	堡港218
22002	11002	0	0.0582	0	250	250	250	0	0	1	-360	360	;	%	变压器
22002	3502	0	0.1056	0	250	250	250	0	0	1	-360	360	;	%	变压器
11002	3502	0	0.0354	0	250	250	250	0	0	1	-360	360	;	%	变压器
22002	11002	0	0.0586	0	250	250	250	0	0	1	-360	360	;	%	变压器
22002	3502	0	0.1054	0	250	250	250	0	0	1	-360	360	;	%	变压器
11002	3502	0	0.0354	0	250	250	250	0	0	1	-360	360	;	%	变压器
22002	22047	0.0009	0.0086	0.0361	250	250	250	0	0	1	-360	360	;	%	家燃
%陈家镇															
22003	22005	0.0005	0.0032	0.9785	250	250	250	0	0	1	-360	360	;	%	家长4287
22003	22005	0.0005	0.0031	0.9654	250	250	250	0	0	1	-360	360	;	%	家长4288
11003	11016	0.0102	0.0317	0	250	250	250	0	0	1	-360	360	;	%	家沿1132
11003	111012	0.0019	0.0143	0	250	250	250	0	0	1	-360	360	;	%	家展1131
11003	211012	0.0024	0.0145	0	250	250	250	0	0	1	-360	360	;	%	家展1135
11003	11005	0.0133	0.0445	0	250	250	250	0	0	1	-360	360	;	%	家长1133
11003	111011	0.0033	0.0105	0	250	250	250	0	0	1	-360	360	;	%	家汲1134
3503	3542	0.0545	0.0986	0	250	250	250	0	0	1	-360	360	;	%	家裕451
3503	3542	0.0522	0.0944	0	250	250	250	0	0	1	-360	360	;	%	家裕467
3503	3544	0.14	0.2553	0	250	250	250	0	0	1	-360	360	;	%	家前452
3503	3544	0.1394	0.2541	0	250	250	250	0	0	1	-360	360	;	%	家前468
3503	13543	0.0123	0.0287	0	250	250	250	0	0	1	-360	360	;	%	家陈453
3503	23543	0.0123	0.0287	0	250	250	250	0	0	1	-360	360	;	%	家陈466
22003	11003	0	0.06	0	250	250	250	0	0	1	-360	360	;	%	变压器
22003	3503	0	0.1088	0	250	250	250	0	0	1	-360	360	;	%	变压器
11003	3503	0	0.0386	0	250	250	250	0	0	1	-360	360	;	%	变压器
22003	11003	0	0.0602	0	250	250	250	0	0	1	-360	360	;	%	变压器
22003	3503	0	0.109	0	250	250	250	0	0	1	-360	360	;	%	变压器
11003	3503	0	0.0388	0	250	250	250	0	0	1	-360	360	;	%	变压器
%长兴															
22005	11005	0	0.06	0	250	250	250	0	0	1	-360	360	;	%	变压器
%南门															
3506	3520	0.1354	0.3028	0	250	250	250	0	0	1	-360	360	;	%	南同345
3506	23522	0.0607	0.1269	0	250	250	250	0	0	1	-360	360	;	%	南湄341
3506	23523	0.0278	0.0577	0	250	250	250	0	0	1	-360	360	;	%	南明343
3506	23524	0.0295	0.0612	0	250	250	250	0	0	1	-360	360	;	%	南园348
3506	23525	0.0062	0.014	0	250	250	250	0	0	1	-360	360	;	%	南安350
3506	23526	0.026	0.0533	0	250	250	250	0	0	1	-360	360	;	%	南闸3U003
111006	3506	0	0.152	0	250	250	250	0	0	1	-360	360	;	%	变压器
111006	1006	0	0.276	0	250	250	250	0	0	1	-360	360	;	%	变压器
3506	1006	0	0.102	0	250	250	250	0	0	1	-360	360	;	%	变压器
211006	3506	0	0.16	0	250	250	250	0	0	1	-360	360	;	%	变压器
211006	1006	0	0.2937	0	250	250	250	0	0	1	-360	360	;	%	变压器
3506	1006	0	0.0997	0	250	250	250	0	0	1	-360	360	;	%	变压器
%新海															
11007	11014	0.0189	0.0641	0	250	250	250	0	0	1	-360	360	;	%	崇海713
3507	3528	0.2625	0.5621	0	250	250	250	0	0	1	-360	360	;	%	海水415
3507	13527	0.0914	0.1955	0	250	250	250	0	0	1	-360	360	;	%	海进416
3507	23527	0.0853	0.1568	0	250	250	250	0	0	1	-360	360	;	%	海进414
3507	3508	0.103	0.2744	0	250	250	250	0	0	1	-360	360	;	%	星新322
3507	3508	0.1744	0.2394	0	250	250	250	0	0	1	-360	360	;	%	红海323
3507	3529	0.1036	0.2221	0	250	250	250	0	0	1	-360	360	;	%	海三413
11007	3507	0	0.3133	0	250	250	250	0	0	1	-360	360	;	%	变压器
11007	1007	0	0.5724	0	250	250	250	0	0	1	-360	360	;	%	变压器
3507	1007	0	0.2219	0	250	250	250	0	0	1	-360	360	;	%	变压器
11007	3507	0	0.3162	0	250	250	250	0	0	1	-360	360	;	%	变压器
11007	1007	0	0.5631	0	250	250	250	0	0	1	-360	360	;	%	变压器
3507	1007	0	0.2165	0	250	250	250	0	0	1	-360	360	;	%	变压器
%红星															
11008	11009	0.023	0.0738	0	250	250	250	0	0	1	-360	360	;	%	长红1107
3508	3530	0.1026	0.188	0	250	250	250	0	0	1	-360	360	;	%	红庙324
3508	23533	0.1315	0.2411	0	250	250	250	0	0	1	-360	360	;	%	红风321
3508	3532	0.0951	0.1849	0	250	250	250	0	0	1	-360	360	;	%	红风321长征支
11008	3508	0	0.557	0	250	250	250	0	0	1	-360	360	;	%	变压器
11008	1008	0	0.96	0	250	250	250	0	0	1	-360	360	;	%	变压器
3508	1008	0	0.348	0	250	250	250	0	0	1	-360	360	;	%	变压器
11008	3508	0	0.5435	0	250	250	250	0	0	1	-360	360	;	%	变压器
11008	1008	0	0.927	0	250	250	250	0	0	1	-360	360	;	%	变压器
3508	1008	0	0.3335	0	250	250	250	0	0	1	-360	360	;	%	变压器
%长江															
3509	3531	0.1867	0.3703	0	250	250	250	0	0	1	-360	360	;	%	长风332
3509	23535	0.1373	0.2846	0	250	250	250	0	0	1	-360	360	;	%	长卫333
3509	3539	0.1122	0.2059	0	250	250	250	0	0	1	-360	360	;	%	长前334
11009	3509	0	0.334	0	250	250	250	0	0	1	-360	360	;	%	变压器
11009	1009	0	0.588	0	250	250	250	0	0	1	-360	360	;	%	变压器
3509	1009	0	0.198	0	250	250	250	0	0	1	-360	360	;	%	变压器
11009	3509	0	0.5445	0	250	250	250	0	0	1	-360	360	;	%	变压器
11009	1009	0	0.936	0	250	250	250	0	0	1	-360	360	;	%	变压器
3509	1009	0	0.3325	0	250	250	250	0	0	1	-360	360	;	%	变压器
%竖河															
3510	13537	0.0813	0.1692	0	250	250	250	0	0	1	-360	360	;	%	竖富427
3510	23537	0.0926	0.1971	0	250	250	250	0	0	1	-360	360	;	%	竖富423
3510	3536	0.0454	0.0965	0	250	250	250	0	0	1	-360	360	;	%	竖新428
3510	3536	0.0447	0.0928	0	250	250	250	0	0	1	-360	360	;	%	竖新424
111010	3510	0	0.32	0	250	250	250	0	0	1	-360	360	;	%	变压器
111010	1010	0	0.564	0	250	250	250	0	0	1	-360	360	;	%	变压器
3510	1010	0	0.198	0	250	250	250	0	0	1	-360	360	;	%	变压器
211010	3510	0	0.32	0	250	250	250	0	0	1	-360	360	;	%	变压器
211010	1010	0	0.563	0	250	250	250	0	0	1	-360	360	;	%	变压器
3510	1010	0	0.197	0	250	250	250	0	0	1	-360	360	;	%	变压器
%汲浜															
3511	3546	0.1588	0.331	0	250	250	250	0	0	1	-360	360	;	%	汲效356
3511	3546	0.1036	0.2225	0	250	250	250	0	0	1	-360	360	;	%	汲效352
111011	3511	0	0.3143	0	250	250	250	0	0	1	-360	360	;	%	变压器
111011	1011	0	0.5552	0	250	250	250	0	0	1	-360	360	;	%	变压器
3511	1011	0	0.2029	0	250	250	250	0	0	1	-360	360	;	%	变压器
211011	3511	0	0.3098	0	250	250	250	0	0	1	-360	360	;	%	变压器
211011	1011	0	0.5467	0	250	250	250	0	0	1	-360	360	;	%	变压器
3511	1011	0	0.2019	0	250	250	250	0	0	1	-360	360	;	%	变压器
%展宏															
111012	1012	0	0.5467	0	250	250	250	0	0	1	-360	360	;	%	变压器
211012	1012	0	0.5467	0	250	250	250	0	0	1	-360	360	;	%	变压器
%乔松															
13517	1017	0	0.3111	0	250	250	250	0	0	1	-360	360	;	%	变压器
23517	1017	0	0.313	0	250	250	250	0	0	1	-360	360	;	%	变压器
%建设															
3518	13519	0.0644	0.1338	0	250	250	250	0	0	1	-360	360	;	%	建森363
3518	23519	0.0662	0.1375	0	250	250	250	0	0	1	-360	360	;	%	建森364
3518	1018	0	1.208	0	250	250	250	0	0	1	-360	360	;	%	变压器
3518	1018	0	1.216	0	250	250	250	0	0	1	-360	360	;	%	变压器
%森林															
13519	1019	0	0.5065	0	250	250	250	0	0	1	-360	360	;	%	变压器
23519	1019	0	0.509	0	250	250	250	0	0	1	-360	360	;	%	变压器
%大同															
3520	3521	0.0542	0.1129	0	250	250	250	0	0	1	-360	360	;	%	同船459
3520	3521	0.0531	0.1106	0	250	250	250	0	0	1	-360	360	;	%	同船342
3520	1020	0	0.796	0	250	250	250	0	0	1	-360	360	;	%	变压器
3520	1020	0	0.793	0	250	250	250	0	0	1	-360	360	;	%	变压器
%湄洲															
13522	1022	0	0.752	0	250	250	250	0	0	1	-360	360	;	%	变压器
23522	1022	0	0.5065	0	250	250	250	0	0	1	-360	360	;	%	变压器
%明珠															
13523	1023	0	0.5055	0	250	250	250	0	0	1	-360	360	;	%	变压器
23523	1023	0	0.5095	0	250	250	250	0	0	1	-360	360	;	%	变压器
%园区															
13524	1024	0	0.636	0	250	250	250	0	0	1	-360	360	;	%	变压器
23524	1024	0	0.647	0	250	250	250	0	0	1	-360	360	;	%	变压器
%崇安															
13525	1025	0	0.502	0	250	250	250	0	0	1	-360	360	;	%	变压器
23525	1025	0	0.509	0	250	250	250	0	0	1	-360	360	;	%	变压器
%新闸															
13526	1026	0	1.265	0	250	250	250	0	0	1	-360	360	;	%	变压器
23526	1026	0	1.268	0	250	250	250	0	0	1	-360	360	;	%	变压器
%跃进															
13527	1027	0	0.509	0	250	250	250	0	0	1	-360	360	;	%	变压器
23527	1027	0	0.5065	0	250	250	250	0	0	1	-360	360	;	%	变压器
%三星															
3529	3530	0.1298	0.2339	0	250	250	250	0	0	1	-360	360	;	%	庙三362
3529	1029	0	0.6336	0	250	250	250	0	0	1	-360	360	;	%	变压器
3529	1029	0	0.6304	0	250	250	250	0	0	1	-360	360	;	%	变压器
%庙镇															
3530	3528	0.1374	0.2934	0	250	250	250	0	0	1	-360	360	;	%	庙水361
3530	1030	0	0.49	0	250	250	250	0	0	1	-360	360	;	%	变压器
3530	1030	0	0.4105	0	250	250	250	0	0	1	-360	360	;	%	变压器
%长征															
3532	1032	0	0.746	0	250	250	250	0	0	1	-360	360	;	%	变压器
%东风															
13533	3534	0.1157	0.1682	0	250	250	250	0	0	1	-360	360	;	%	风启380
13533	13535	0.1432	0.279	0	250	250	250	0	0	1	-360	360	;	%	风启380支接
13533	1033	0	1.325	0	250	250	250	0	0	1	-360	360	;	%	变压器
23533	1033	0	1.307	0	250	250	250	0	0	1	-360	360	;	%	变压器
%启隆															
3534	1034	0	0.753	0	250	250	250	0	0	1	-360	360	;	%	变压器
%前卫															
13535	1035	0	0.5035	0	250	250	250	0	0	1	-360	360	;	%	变压器
23535	1035	0	0.5035	0	250	250	250	0	0	1	-360	360	;	%	变压器
%新河															
3536	1036	0	1.2635	0	250	250	250	0	0	1	-360	360	;	%	变压器
3536	1036	0	1.2016	0	250	250	250	0	0	1	-360	360	;	%	变压器
%富盛															
13537	1037	0	0.5	0	250	250	250	0	0	1	-360	360	;	%	变压器
23537	1037	0	0.501	0	250	250	250	0	0	1	-360	360	;	%	变压器
%堡镇															
13538	1038	0	0.5025	0	250	250	250	0	0	1	-360	360	;	%	变压器
23538	1038	0	0.669	0	250	250	250	0	0	1	-360	360	;	%	变压器
%前进															
3539	3541	0.141	0.2586	0	250	250	250	0	0	1	-360	360	;	%	港前335
3539	1039	0	1.254	0	250	250	250	0	0	1	-360	360	;	%	变压器
3539	1039	0	1.248	0	250	250	250	0	0	1	-360	360	;	%	变压器
%上船															
13540	1040	0	0.3144	0	250	250	250	0	0	1	-360	360	;	%	变压器
23540	1040	0	0.3212	0	250	250	250	0	0	1	-360	360	;	%	变压器
%港沿															
3541	1041	0	0.5431	0	250	250	250	0	0	1	-360	360	;	%	变压器
3541	1041	0	0.4894	0	250	250	250	0	0	1	-360	360	;	%	变压器
%裕安															
3542	1042	0	0.792	0	250	250	250	0	0	1	-360	360	;	%	变压器
3542	1042	0	0.792	0	250	250	250	0	0	1	-360	360	;	%	变压器
%陈东															
13543	1043	0	0.4985	0	250	250	250	0	0	1	-360	360	;	%	变压器
23543	1043	0	0.4965	0	250	250	250	0	0	1	-360	360	;	%	变压器
%前哨															
3544	3545	0.0915	0.1838	0	250	250	250	0	0	1	-360	360	;	%	风哨377
3544	3545	0.0915	0.1838	0	250	250	250	0	0	1	-360	360	;	%	风哨378
3544	1044	0	1.235	0	250	250	250	0	0	1	-360	360	;	%	变压器
3544	1044	0	1.23	0	250	250	250	0	0	1	-360	360	;	%	变压器
%五效															
3546	1046	0	0.653	0	250	250	250	0	0	1	-360	360	;	%	变压器
3546	1046	0	0.666	0	250	250	250	0	0	1	-360	360	;	%	变压器

];

%%-----  OPF Data  -----%%
%% generator cost data
%	1	startup	shutdown	n	x1	y1	...	xn	yn
%	2	startup	shutdown	n	c(n-1)	...	c0
% mpc.gencost = [
% 	2	1500	0	3	0.11	5	150;
% 	2	2000	0	3	0.085	1.2	600;
% 	2	3000	0	3	0.1225	1	335;
% ];


